<?xml version="1.0" encoding="utf-8"?>
<!DOCTYPE population SYSTEM "http://www.matsim.org/files/dtd/population_v6.dtd">

<population>



<!-- ====================================================================== -->

	<person id="10000_1">
		<attributes>
			<attribute name="age" class="java.lang.Integer">31</attribute>
			<attribute name="carAvail" class="java.lang.String">always</attribute>
			<attribute name="employed" class="java.lang.Boolean">true</attribute>
			<attribute name="sex" class="java.lang.String">f</attribute>
		</attributes>
		<plan selected="yes">
			<activity type="home" link="1" x="1000.0" y="7600.0" end_time="08:15:57" >
			</activity>
			<leg mode="car">
			</leg>
			<activity type="work" link="24" x="1800.0" y="8800.0" start_time="08:15:57" end_time="00:00:00" >
			</activity>
		</plan>

	</person>

<!-- ====================================================================== -->

	<person id="10001_1">
		<attributes>
			<attribute name="age" class="java.lang.Integer">50</attribute>
			<attribute name="carAvail" class="java.lang.String">always</attribute>
			<attribute name="employed" class="java.lang.Boolean">true</attribute>
			<attribute name="sex" class="java.lang.String">m</attribute>
		</attributes>
		<plan selected="yes">
			<activity type="home" link="1" x="2600.0" y="7600.0" end_time="08:20:30" >
			</activity>
			<leg mode="car">
			</leg>
			<activity type="work" link="24" x="3500.0" y="8800.0" start_time="08:20:30" end_time="00:00:00" >
			</activity>
		</plan>

	</person>


	<person id="10003_1">
		<attributes>
			<attribute name="age" class="java.lang.Integer">41</attribute>
			<attribute name="carAvail" class="java.lang.String">always</attribute>
			<attribute name="employed" class="java.lang.Boolean">true</attribute>
			<attribute name="sex" class="java.lang.String">f</attribute>
		</attributes>
		<plan selected="yes">
			<activity type="home" link="1" x="4400.0" y="7000.0" end_time="08:04:37" >
			</activity>
			<leg mode="car">
			</leg>
			<activity type="work" link="24" x="3500.0" y="8800.0" start_time="08:04:37" end_time="00:00:00" >
			</activity>
		</plan>

	</person>



	<person id="10004_1">
		<attributes>
			<attribute name="age" class="java.lang.Integer">35</attribute>
			<attribute name="carAvail" class="java.lang.String">always</attribute>
			<attribute name="employed" class="java.lang.Boolean">true</attribute>
			<attribute name="sex" class="java.lang.String">f</attribute>
		</attributes>
		<plan selected="yes">
			<activity type="home" link="1" x="8400.0" y="7000.0" end_time="9:05:27" >
			</activity>
			<leg mode="car">
			</leg>
			<activity type="work" link="24" x="4400.0" y="3200.0" start_time="09:05:27" end_time="00:00:00" >
			</activity>
		</plan>

	</person>



	<person id="10006_1">
		<attributes>
			<attribute name="age" class="java.lang.Integer">32</attribute>
			<attribute name="carAvail" class="java.lang.String">always</attribute>
			<attribute name="employed" class="java.lang.Boolean">true</attribute>
			<attribute name="sex" class="java.lang.String">m</attribute>
		</attributes>
		<plan selected="yes">
			<activity type="home" link="1" x="6400.0" y="4500.0" end_time="09:23:21" >
			</activity>
			<leg mode="car">
			</leg>
			<activity type="work" link="24" x="2600.0" y="1800.0" start_time="09:23:21" end_time="00:00:00" >
			</activity>
		</plan>

	</person>
	<person id="10055_2">
		<attributes>
			<attribute name="age" class="java.lang.Integer">61</attribute>
			<attribute name="carAvail" class="java.lang.String">always</attribute>
			<attribute name="employed" class="java.lang.Boolean">true</attribute>
			<attribute name="sex" class="java.lang.String">f</attribute>
		</attributes>
		<plan selected="yes">
			<activity type="home" link="1" x="4400.0" y="7000.0" end_time="08:25:16" >
			</activity>
			<leg mode="car">
			</leg>
			<activity type="work" link="24" x="2600.0" y="7600.0" start_time="08:25:16" end_time="00:00:00" >
			</activity>
		</plan>

	</person>



	<person id="10056_1">
		<attributes>
			<attribute name="age" class="java.lang.Integer">31</attribute>
			<attribute name="carAvail" class="java.lang.String">always</attribute>
			<attribute name="employed" class="java.lang.Boolean">true</attribute>
			<attribute name="sex" class="java.lang.String">m</attribute>
		</attributes>
		<plan selected="yes">
			<activity type="home" link="1" x="7400.0" y="3700.0" end_time="08:18:20" >
			</activity>
			<leg mode="car">
			</leg>
			<activity type="work" link="24" x="1800.0" y="6400.0" start_time="08:18:20" end_time="00:00:00" >
			</activity>
		</plan>

	</person>



	<person id="10056_2">
		<attributes>
			<attribute name="age" class="java.lang.Integer">30</attribute>
			<attribute name="carAvail" class="java.lang.String">always</attribute>
			<attribute name="employed" class="java.lang.Boolean">true</attribute>
			<attribute name="sex" class="java.lang.String">f</attribute>
		</attributes>
		<plan selected="yes">
			<activity type="home" link="1" x="4400.0" y="5100.0" end_time="08:14:47" >
			</activity>
			<leg mode="car">
			</leg>
			<activity type="work" link="24" x="1000.0" y="9500.0" start_time="08:14:47" end_time="00:00:00" >
			</activity>
		</plan>

	</person>



	<person id="10057_1">
		<attributes>
			<attribute name="age" class="java.lang.Integer">49</attribute>
			<attribute name="carAvail" class="java.lang.String">always</attribute>
			<attribute name="employed" class="java.lang.Boolean">true</attribute>
			<attribute name="sex" class="java.lang.String">f</attribute>
		</attributes>
		<plan selected="yes">
			<activity type="home" link="1" x="1000.0" y="7600.0" end_time="08:23:32" >
			</activity>
			<leg mode="car">
			</leg>
			<activity type="work" link="24" x="1800.0" y="6400.0" start_time="08:23:32" end_time="00:00:00" >
			</activity>
		</plan>

	</person>

	<person id="10058_3">
		<attributes>
			<attribute name="age" class="java.lang.Integer">18</attribute>
			<attribute name="carAvail" class="java.lang.String">always</attribute>
			<attribute name="employed" class="java.lang.Boolean">true</attribute>
			<attribute name="sex" class="java.lang.String">m</attribute>
		</attributes>
		<plan selected="yes">
			<activity type="home" link="1" x="4400.0" y="5100.0" end_time="08:20:34" >
			</activity>
			<leg mode="car">
			</leg>
			<activity type="work" link="24" x="5400.0" y="6400.0" start_time="08:20:34" end_time="00:00:00" >
			</activity>
		</plan>

	</person>



</population>
